Simulation/TestSystem/report.DAT

 TWO AREA MULTI-MACHINE TEST SYSTEM


The Saved Case in file C:\Users\lsigrist\OneDrive - Universidad Pontificia Comillas\PSSE\Tools\HYACDCSIM\Simulation\TestSystem\kundur32_AC.sav was saved on THU, APR 10 2025  19:56

 ITER       DELTAP      BUS         DELTAQ      BUS        DELTA/V/      BUS       DELTAANG      BUS
  0         0.0000(      9     )    0.0000(      6     )
                                                            0.00000(      8     )   0.00000(      9     )
  1         0.0000(      9     )    0.0000(     10     )
                                                            0.00000(      8     )   0.00000(      1     )
  2         0.0000(     10     )    0.0000(     10     )


Reached tolerance in 2 iterations

Largest mismatch:     -0.00 MW      0.00 Mvar      0.00 MVA at bus 9 [BUS9        220.00]
System total absolute mismatch:                    0.00 MVA

SWING BUS SUMMARY:
  BUS#-SCT X-- NAME --X BASKV      PGEN     PMAX    PMIN      QGEN     QMAX    QMIN
     3     BUS3        20.000     719.1   9999.0 -9999.0     175.5   9999.0 -9999.0

Generator conversion completed using ZSORCE

2 loads converted during this step

2 of 2 loads converted
Diagonals = 11   Off-diagonals = 10   Maximum size = 20

11 diagonal and 10 off-diagonal elements

ITER DELTAV/TOL X----------- AT BUS -----------X  REAL(DELTAV)  IMAG(DELTAV)
   1     0.003       1     [BUS1        20.000]   -0.2623E-07   -0.2128E-07

Reached tolerance in 1 iterations

Largest mismatch:      0.00 MW      0.00 Mvar      0.00 MVA at bus 4 [BUS4        20.000]
System total absolute mismatch:                    0.00 MVA
Out of file data--switch to terminal input mode

Generator models use:
 CONS         1-     70
 STATES       1-     31
 VARS         1-     17
 ICONS        1-      5

Excitation System models use:
 CONS        71-    106
 STATES      32-     43

Turbine Governor models use:
 CONS       107-    166
 STATES      44-     61
 VARS        18-     23


SUMMARY OF MODELS READ:

GENS:  GENROU
          3

EXSYS: EXST1
          3

GOVS:  IEEEG1
          3

USER:  USRMDL
          1

NEXT AVAILABLE ADDRESSES ARE:
    CON   STATE     VAR    ICON
    167      62      24       6

Compile models not supplied by PSS/E and create user dll

Channel output file is "C:\Users\lsigrist\OneDrive - Universidad Pontificia Comillas\PSSE\Tools\HYACDCSIM\Simulation\TestSystem\output.out"

4 Output channels have been added


Next available addresses are:
  CHANNEL    VAR    ICON
       5      24       6

4 Output channels have been added


Next available addresses are:
  CHANNEL    VAR    ICON
       9      24       6

4 Output channels have been added


Next available addresses are:
  CHANNEL    VAR    ICON
      13      24       6

4 Output channels have been added


Next available addresses are:
  CHANNEL    VAR    ICON
      17      24       6

4 Output channels have been added


Next available addresses are:
  CHANNEL    VAR    ICON
      21      24       6

4 Output channels have been added


Next available addresses are:
  CHANNEL    VAR    ICON
      25      24       6

4 Output channels have been added


Next available addresses are:
  CHANNEL    VAR    ICON
      29      24       6

CHANNEL   29 WITH IDENTIFIER "XECD" ADDED

CHANNEL   30 WITH IDENTIFIER "XECQ" ADDED

CHANNEL   31 WITH IDENTIFIER "DELTA" ADDED

CHANNEL   32 WITH IDENTIFIER "OMEGA" ADDED

CHANNEL   33 WITH IDENTIFIER "ID" ADDED

CHANNEL   34 WITH IDENTIFIER "IQ" ADDED

CHANNEL   35 WITH IDENTIFIER "DELTAP" ADDED

CHANNEL   36 WITH IDENTIFIER "PDC" ADDED
ibrary added:C:\Users\lsigrist\OneDrive - Universidad Pontificia Comillas\PSSE\Tools\HYACDCSIM\Simulation\TestSystem\USRSOU.dll

11 diagonal and 10 off-diagonal elements
VSCGFO - CASE  4 :  -4.0000002E-03 (1.064947,-3.4915630E-02)
(0.9940726,-0.1786608) (6.468534,-3.189327) 7.000000
VSCGFO - CASE  1 :  -4.0000002E-03 (1.064947,-3.4915630E-02)
(0.9940726,-0.1786608) (6.468534,-3.189327) 7.000000
VSCGFO - CASE 1: No governor-type model found at bus  4  with id 1 .
VSCGFO - CASE 1: Converter  1  at bus  4  with id 1  initialized.
VSCGFO - CASE 1: delta =  -3.2774534E-02 , deltamax =  -0.1778277 , thetas = 
-0.1778277 , deltap =  0.000000 , deltapctref =  0.000000 , xomega = 
1.000000 , xdelta =  -3.2774534E-02 , xdc =  7.000000 , xpfc =  -0.000000 
, xpod =  -0.000000 , xq =  0.000000 , ypod =  0.000000 , yitvid = 
0.000000 , yitviq =  0.000000 , yudcpss =  0.000000 , ydc =  7.000000 
, pctref =  7.000000 , qctref =  3.170610 , ectref =  1.065519

    PTI INTERACTIVE POWER SYSTEM SIMULATOR--PSS(R)E     SUN, APR 13 2025  23:40
 TWO AREA MULTI-MACHINE TEST SYSTEM


INITIAL CONDITION LOAD FLOW USED 1 ITERATIONS

----------------------------- MACHINE INITIAL CONDITIONS -----------------------------
  BUS#-SCT X-- NAME --X BASKV ID  ETERM   EFD    POWER    VARS   P.F.  ANGLE   ID     IQ
     1     BUS1        20.000 1  1.0300 2.0763  700.00  184.51 0.9670  67.85 0.6440 0.4417
     2     BUS2        20.000 1  1.0100 2.1523  700.00  234.08 0.9484  57.29 0.6922 0.4245
     3     BUS3        20.000 1  1.0300 2.0869  719.06  175.49 0.9715  41.90 0.6589 0.4510
     4     BUS4        20.000 1  1.0100 1.0655  700.00  201.47 0.9610-107.59-0.7922 0.1206
VSCGFO - CASE  3 :  -4.0000002E-03 (1.065519,-7.4389872E-10)
(0.9993932,-0.1459905) (6.569571,-2.975649) 7.000000
TSCGFO - CASE 3:  -4.0000002E-03 (1.065519,-7.4389872E-10)
(0.9993932,-0.1459905) (6.569571,-2.975651) 7.000001
VSCGFO - CASE  2 :  -4.0000002E-03 (1.065519,-7.4389872E-10)
(0.9993932,-0.1459905) (6.569571,-2.975649) 7.000001

INITIAL CONDITIONS CHECK O.K.

Channel output file is "C:\Users\lsigrist\OneDrive - Universidad Pontificia Comillas\PSSE\Tools\HYACDCSIM\Simulation\TestSystem\output.out"

Channel output file is "C:\Users\lsigrist\OneDrive - Universidad Pontificia Comillas\PSSE\Tools\HYACDCSIM\Simulation\TestSystem\output.out"
VSCGFO - CASE  3 :  -4.0000002E-03 (1.065519,-7.4389872E-10)
(0.9993932,-0.1459905) (6.569571,-2.975649) 7.000001
TSCGFO - CASE 3:  -4.0000002E-03 (1.065519,-7.4389872E-10)
(0.9993932,-0.1459905) (6.569571,-2.975651) 7.000001
VSCGFO - CASE  2 :  -4.0000002E-03 (1.065519,-7.4389872E-10)
(0.9993932,-0.1459905) (6.569571,-2.975649) 7.000001
VSCGFO - CASE  3 :  -2.0000001E-03 (1.065519,-7.4389872E-10)
(0.9993932,-0.1459905) (6.569571,-2.975649) 7.000001
TSCGFO - CASE 3:  -2.0000001E-03 (1.065519,-7.4389872E-10)
(0.9993932,-0.1459905) (6.569571,-2.975651) 7.000001
VSCGFO - CASE  2 :  -2.0000001E-03 (1.065519,-7.4389872E-10)
(0.9993932,-0.1459905) (6.569571,-2.975649) 7.000001
VSCGFO - CASE  3 :  0.000000 (1.065519,-7.4389872E-10) (0.9993932,-0.1459905)
(6.569571,-2.975649) 7.000001
TSCGFO - CASE 3:  0.000000 (1.065519,-7.4389872E-10) (0.9993932,-0.1459905)
(6.569571,-2.975651) 7.000001
VSCGFO - CASE  2 :  0.000000 (1.065519,-7.4389872E-10) (0.9993932,-0.1459905)
(6.569571,-2.975649) 7.000001
VSCGFO - CASE  3 :  2.0000001E-03 (1.065519,-7.4389872E-10)
(0.9993932,-0.1459905) (6.569571,-2.975649) 7.000001
TSCGFO - CASE 3:  2.0000001E-03 (1.065519,-7.4389872E-10)
(0.9993932,-0.1459905) (6.569571,-2.975651) 7.000001
VSCGFO - CASE  2 :  2.0000001E-03 (1.065519,-7.4389872E-10)
(0.9993932,-0.1459905) (6.569571,-2.975649) 7.000001
VSCGFO - CASE  3 :  4.0000002E-03 (1.065519,-7.4389872E-10)
(0.9993932,-0.1459905) (6.569571,-2.975649) 7.000001
TSCGFO - CASE 3:  4.0000002E-03 (1.065519,-7.4389872E-10)
(0.9993932,-0.1459905) (6.569571,-2.975651) 7.000001
VSCGFO - CASE  2 :  4.0000002E-03 (1.065519,-7.4389872E-10)
(0.9993932,-0.1459905) (6.569571,-2.975649) 7.000001
VSCGFO - CASE  3 :  6.0000001E-03 (1.065519,-7.4389872E-10)
(0.9993932,-0.1459905) (6.569571,-2.975649) 7.000001
TSCGFO - CASE 3:  6.0000001E-03 (1.065519,-7.4389872E-10)
(0.9993932,-0.1459905) (6.569571,-2.975651) 7.000001
VSCGFO - CASE  2 :  6.0000001E-03 (1.065519,-7.4389872E-10)
(0.9993932,-0.1459905) (6.569571,-2.975649) 7.000001
VSCGFO - CASE  3 :  8.0000004E-03 (1.065519,-7.4389872E-10)
(0.9993932,-0.1459905) (6.569571,-2.975649) 7.000001
TSCGFO - CASE 3:  8.0000004E-03 (1.065519,-7.4389872E-10)
(0.9993932,-0.1459905) (6.569571,-2.975651) 7.000001
VSCGFO - CASE  2 :  8.0000004E-03 (1.065519,-7.4389872E-10)
(0.9993932,-0.1459905) (6.569571,-2.975649) 7.000001
VSCGFO - CASE  3 :  1.0000001E-02 (1.065519,-7.4389872E-10)
(0.9993932,-0.1459905) (6.569571,-2.975649) 7.000001
TSCGFO - CASE 3:  1.0000001E-02 (1.065519,-7.4389872E-10)
(0.9993932,-0.1459905) (6.569571,-2.975651) 7.000001
VSCGFO - CASE  2 :  1.0000001E-02 (1.065519,-7.4389872E-10)
(0.9993932,-0.1459905) (6.569571,-2.975649) 7.000001
VSCGFO - CASE  3 :  1.2000001E-02 (1.065519,-7.4389872E-10)
(0.9993932,-0.1459905) (6.569571,-2.975649) 7.000001
TSCGFO - CASE 3:  1.2000001E-02 (1.065519,-7.4389872E-10)
(0.9993932,-0.1459905) (6.569571,-2.975651) 7.000001
VSCGFO - CASE  2 :  1.2000001E-02 (1.065519,-7.4389872E-10)
(0.9993932,-0.1459905) (6.569571,-2.975649) 7.000001
VSCGFO - CASE  3 :  1.4000001E-02 (1.065519,-7.4389872E-10)
(0.9993932,-0.1459905) (6.569571,-2.975649) 7.000001
TSCGFO - CASE 3:  1.4000001E-02 (1.065519,-7.4389872E-10)
(0.9993932,-0.1459905) (6.569571,-2.975651) 7.000001
VSCGFO - CASE  2 :  1.4000001E-02 (1.065519,-7.4389872E-10)
(0.9993932,-0.1459905) (6.569571,-2.975649) 7.000001
VSCGFO - CASE  3 :  1.6000001E-02 (1.065519,-7.4389872E-10)
(0.9993932,-0.1459905) (6.569571,-2.975649) 7.000001
TSCGFO - CASE 3:  1.6000001E-02 (1.065519,-7.4389872E-10)
(0.9993932,-0.1459905) (6.569571,-2.975651) 7.000001
VSCGFO - CASE  2 :  1.6000001E-02 (1.065519,-7.4389872E-10)
(0.9993932,-0.1459905) (6.569571,-2.975649) 7.000001
VSCGFO - CASE  3 :  1.8000001E-02 (1.065519,-7.4389872E-10)
(0.9993932,-0.1459905) (6.569571,-2.975649) 7.000001
TSCGFO - CASE 3:  1.8000001E-02 (1.065519,-7.4389872E-10)
(0.9993932,-0.1459905) (6.569571,-2.975651) 7.000001
VSCGFO - CASE  2 :  1.8000001E-02 (1.065519,-7.4389872E-10)
(0.9993932,-0.1459905) (6.569571,-2.975649) 7.000001
VSCGFO - CASE  3 :  2.0000001E-02 (1.065519,-7.4389872E-10)
(0.9993932,-0.1459905) (6.569571,-2.975649) 7.000001
TSCGFO - CASE 3:  2.0000001E-02 (1.065519,-7.4389872E-10)
(0.9993932,-0.1459905) (6.569571,-2.975651) 7.000001
VSCGFO - CASE  2 :  2.0000001E-02 (1.065519,-7.4389872E-10)
(0.9993932,-0.1459905) (6.569571,-2.975649) 7.000001
VSCGFO - CASE  3 :  2.2000002E-02 (1.065519,-7.4389872E-10)
(0.9993932,-0.1459905) (6.569571,-2.975649) 7.000001
TSCGFO - CASE 3:  2.2000002E-02 (1.065519,-7.4389872E-10)
(0.9993932,-0.1459905) (6.569571,-2.975651) 7.000001
VSCGFO - CASE  2 :  2.2000002E-02 (1.065519,-7.4389872E-10)
(0.9993932,-0.1459905) (6.569571,-2.975649) 7.000001
VSCGFO - CASE  3 :  2.4000002E-02 (1.065519,-7.4389872E-10)
(0.9993932,-0.1459905) (6.569571,-2.975649) 7.000001
TSCGFO - CASE 3:  2.4000002E-02 (1.065519,-7.4389872E-10)
(0.9993932,-0.1459905) (6.569571,-2.975651) 7.000001
VSCGFO - CASE  2 :  2.4000002E-02 (1.065519,-7.4389872E-10)
(0.9993932,-0.1459905) (6.569571,-2.975649) 7.000001
VSCGFO - CASE  3 :  2.6000002E-02 (1.065519,-7.4389872E-10)
(0.9993932,-0.1459905) (6.569571,-2.975649) 7.000001
TSCGFO - CASE 3:  2.6000002E-02 (1.065519,-7.4389872E-10)
(0.9993932,-0.1459905) (6.569571,-2.975651) 7.000001
VSCGFO - CASE  2 :  2.6000002E-02 (1.065519,-7.4389872E-10)
(0.9993932,-0.1459905) (6.569571,-2.975649) 7.000001
VSCGFO - CASE  3 :  2.8000003E-02 (1.065519,-7.4389872E-10)
(0.9993932,-0.1459905) (6.569571,-2.975649) 7.000001
TSCGFO - CASE 3:  2.8000003E-02 (1.065519,-7.4389872E-10)
(0.9993932,-0.1459905) (6.569571,-2.975651) 7.000001
VSCGFO - CASE  2 :  2.8000003E-02 (1.065519,-7.4389872E-10)
(0.9993932,-0.1459905) (6.569571,-2.975649) 7.000001
VSCGFO - CASE  3 :  3.0000003E-02 (1.065519,-7.4389872E-10)
(0.9993932,-0.1459905) (6.569571,-2.975649) 7.000001
TSCGFO - CASE 3:  3.0000003E-02 (1.065519,-7.4389872E-10)
(0.9993932,-0.1459905) (6.569571,-2.975651) 7.000001
VSCGFO - CASE  2 :  3.0000003E-02 (1.065519,-7.4389872E-10)
(0.9993932,-0.1459905) (6.569571,-2.975649) 7.000001
VSCGFO - CASE  3 :  3.2000002E-02 (1.065519,-7.4389872E-10)
(0.9993932,-0.1459905) (6.569571,-2.975649) 7.000001
TSCGFO - CASE 3:  3.2000002E-02 (1.065519,-7.4389872E-10)
(0.9993932,-0.1459905) (6.569571,-2.975651) 7.000001
VSCGFO - CASE  2 :  3.2000002E-02 (1.065519,-7.4389872E-10)
(0.9993932,-0.1459905) (6.569571,-2.975649) 7.000001
VSCGFO - CASE  3 :  3.4000002E-02 (1.065519,-7.4389872E-10)
(0.9993932,-0.1459905) (6.569571,-2.975649) 7.000001
TSCGFO - CASE 3:  3.4000002E-02 (1.065519,-7.4389872E-10)
(0.9993932,-0.1459905) (6.569571,-2.975651) 7.000001
VSCGFO - CASE  2 :  3.4000002E-02 (1.065519,-7.4389872E-10)
(0.9993932,-0.1459905) (6.569571,-2.975649) 7.000001
VSCGFO - CASE  3 :  3.6000002E-02 (1.065519,-7.4389872E-10)
(0.9993932,-0.1459905) (6.569571,-2.975649) 7.000001
TSCGFO - CASE 3:  3.6000002E-02 (1.065519,-7.4389872E-10)
(0.9993932,-0.1459905) (6.569571,-2.975651) 7.000001
VSCGFO - CASE  2 :  3.6000002E-02 (1.065519,-7.4389872E-10)
(0.9993932,-0.1459905) (6.569571,-2.975649) 7.000001
VSCGFO - CASE  3 :  3.8000003E-02 (1.065519,-7.4389872E-10)
(0.9993932,-0.1459905) (6.569571,-2.975649) 7.000001
TSCGFO - CASE 3:  3.8000003E-02 (1.065519,-7.4389872E-10)
(0.9993932,-0.1459905) (6.569571,-2.975651) 7.000001
VSCGFO - CASE  2 :  3.8000003E-02 (1.065519,-7.4389872E-10)
(0.9993932,-0.1459905) (6.569571,-2.975649) 7.000001
VSCGFO - CASE  3 :  4.0000003E-02 (1.065519,-7.4389872E-10)
(0.9993932,-0.1459905) (6.569571,-2.975649) 7.000001
TSCGFO - CASE 3:  4.0000003E-02 (1.065519,-7.4389872E-10)
(0.9993932,-0.1459905) (6.569571,-2.975651) 7.000001
VSCGFO - CASE  2 :  4.0000003E-02 (1.065519,-7.4389872E-10)
(0.9993932,-0.1459905) (6.569571,-2.975649) 7.000001
VSCGFO - CASE  3 :  4.2000003E-02 (1.065519,-7.4389872E-10)
(0.9993932,-0.1459905) (6.569571,-2.975649) 7.000001
TSCGFO - CASE 3:  4.2000003E-02 (1.065519,-7.4389872E-10)
(0.9993932,-0.1459905) (6.569571,-2.975651) 7.000001
VSCGFO - CASE  2 :  4.2000003E-02 (1.065519,-7.4389872E-10)
(0.9993932,-0.1459905) (6.569571,-2.975649) 7.000001
VSCGFO - CASE  3 :  4.4000003E-02 (1.065519,-7.4389872E-10)
(0.9993932,-0.1459905) (6.569571,-2.975649) 7.000001
TSCGFO - CASE 3:  4.4000003E-02 (1.065519,-7.4389872E-10)
(0.9993932,-0.1459905) (6.569571,-2.975651) 7.000001
VSCGFO - CASE  2 :  4.4000003E-02 (1.065519,-7.4389872E-10)
(0.9993932,-0.1459905) (6.569571,-2.975649) 7.000001
VSCGFO - CASE  3 :  4.6000004E-02 (1.065519,-7.4389872E-10)
(0.9993932,-0.1459905) (6.569571,-2.975649) 7.000001
TSCGFO - CASE 3:  4.6000004E-02 (1.065519,-7.4389872E-10)
(0.9993932,-0.1459905) (6.569571,-2.975651) 7.000001
VSCGFO - CASE  2 :  4.6000004E-02 (1.065519,-7.4389872E-10)
(0.9993932,-0.1459905) (6.569571,-2.975649) 7.000001
VSCGFO - CASE  3 :  4.8000004E-02 (1.065519,-7.4389872E-10)
(0.9993932,-0.1459905) (6.569571,-2.975649) 7.000001
TSCGFO - CASE 3:  4.8000004E-02 (1.065519,-7.4389872E-10)
(0.9993932,-0.1459905) (6.569571,-2.975651) 7.000001
VSCGFO - CASE  2 :  4.8000004E-02 (1.065519,-7.4389872E-10)
(0.9993932,-0.1459905) (6.569571,-2.975649) 7.000001
VSCGFO - CASE  3 :  5.0000004E-02 (1.065519,-7.4389872E-10)
(0.9993932,-0.1459905) (6.569571,-2.975649) 7.000001
TSCGFO - CASE 3:  5.0000004E-02 (1.065519,-7.4389872E-10)
(0.9993932,-0.1459905) (6.569571,-2.975651) 7.000001
VSCGFO - CASE  2 :  5.0000004E-02 (1.065519,-7.4389872E-10)
(0.9993932,-0.1459905) (6.569571,-2.975649) 7.000001
VSCGFO - CASE  3 :  5.2000005E-02 (1.065519,-7.4389872E-10)
(0.9993932,-0.1459905) (6.569571,-2.975649) 7.000001
TSCGFO - CASE 3:  5.2000005E-02 (1.065519,-7.4389872E-10)
(0.9993932,-0.1459905) (6.569571,-2.975651) 7.000001
VSCGFO - CASE  2 :  5.2000005E-02 (1.065519,-7.4389872E-10)
(0.9993932,-0.1459905) (6.569571,-2.975649) 7.000001
VSCGFO - CASE  3 :  5.4000005E-02 (1.065519,-7.4389872E-10)
(0.9993932,-0.1459905) (6.569571,-2.975649) 7.000001
TSCGFO - CASE 3:  5.4000005E-02 (1.065519,-7.4389872E-10)
(0.9993932,-0.1459905) (6.569571,-2.975651) 7.000001
VSCGFO - CASE  2 :  5.4000005E-02 (1.065519,-7.4389872E-10)
(0.9993932,-0.1459905) (6.569571,-2.975649) 7.000001
VSCGFO - CASE  3 :  5.6000005E-02 (1.065519,-7.4389872E-10)
(0.9993932,-0.1459905) (6.569571,-2.975649) 7.000001
TSCGFO - CASE 3:  5.6000005E-02 (1.065519,-7.4389872E-10)
(0.9993932,-0.1459905) (6.569571,-2.975651) 7.000001
VSCGFO - CASE  2 :  5.6000005E-02 (1.065519,-7.4389872E-10)
(0.9993932,-0.1459905) (6.569571,-2.975649) 7.000001
VSCGFO - CASE  3 :  5.8000006E-02 (1.065519,-7.4389872E-10)
(0.9993932,-0.1459905) (6.569571,-2.975649) 7.000001
TSCGFO - CASE 3:  5.8000006E-02 (1.065519,-7.4389872E-10)
(0.9993932,-0.1459905) (6.569571,-2.975651) 7.000001
VSCGFO - CASE  2 :  5.8000006E-02 (1.065519,-7.4389872E-10)
(0.9993932,-0.1459905) (6.569571,-2.975649) 7.000001
VSCGFO - CASE  3 :  6.0000006E-02 (1.065519,-7.4389872E-10)
(0.9993932,-0.1459905) (6.569571,-2.975649) 7.000001
TSCGFO - CASE 3:  6.0000006E-02 (1.065519,-7.4389872E-10)
(0.9993932,-0.1459905) (6.569571,-2.975651) 7.000001
VSCGFO - CASE  2 :  6.0000006E-02 (1.065519,-7.4389872E-10)
(0.9993932,-0.1459905) (6.569571,-2.975649) 7.000001
VSCGFO - CASE  3 :  6.2000006E-02 (1.065519,-7.4389872E-10)
(0.9993932,-0.1459905) (6.569571,-2.975649) 7.000001
TSCGFO - CASE 3:  6.2000006E-02 (1.065519,-7.4389872E-10)
(0.9993932,-0.1459905) (6.569571,-2.975651) 7.000001
VSCGFO - CASE  2 :  6.2000006E-02 (1.065519,-7.4389872E-10)
(0.9993932,-0.1459905) (6.569571,-2.975649) 7.000001
VSCGFO - CASE  3 :  6.4000003E-02 (1.065519,-7.4389872E-10)
(0.9993932,-0.1459905) (6.569571,-2.975649) 7.000001
TSCGFO - CASE 3:  6.4000003E-02 (1.065519,-7.4389872E-10)
(0.9993932,-0.1459905) (6.569571,-2.975651) 7.000001
VSCGFO - CASE  2 :  6.4000003E-02 (1.065519,-7.4389872E-10)
(0.9993932,-0.1459905) (6.569571,-2.975649) 7.000001
VSCGFO - CASE  3 :  6.6000000E-02 (1.065519,-7.4389872E-10)
(0.9993932,-0.1459905) (6.569571,-2.975649) 7.000001
TSCGFO - CASE 3:  6.6000000E-02 (1.065519,-7.4389872E-10)
(0.9993932,-0.1459905) (6.569571,-2.975651) 7.000001
VSCGFO - CASE  2 :  6.6000000E-02 (1.065519,-7.4389872E-10)
(0.9993932,-0.1459905) (6.569571,-2.975649) 7.000001
VSCGFO - CASE  3 :  6.7999996E-02 (1.065519,-7.4389872E-10)
(0.9993932,-0.1459905) (6.569571,-2.975649) 7.000001
TSCGFO - CASE 3:  6.7999996E-02 (1.065519,-7.4389872E-10)
(0.9993932,-0.1459905) (6.569571,-2.975651) 7.000001
VSCGFO - CASE  2 :  6.7999996E-02 (1.065519,-7.4389872E-10)
(0.9993932,-0.1459905) (6.569571,-2.975649) 7.000001
VSCGFO - CASE  3 :  6.9999993E-02 (1.065519,-7.4389872E-10)
(0.9993932,-0.1459905) (6.569571,-2.975649) 7.000001
TSCGFO - CASE 3:  6.9999993E-02 (1.065519,-7.4389872E-10)
(0.9993932,-0.1459905) (6.569571,-2.975651) 7.000001
VSCGFO - CASE  2 :  6.9999993E-02 (1.065519,-7.4389872E-10)
(0.9993932,-0.1459905) (6.569571,-2.975649) 7.000001
VSCGFO - CASE  3 :  7.1999989E-02 (1.065519,-7.4389872E-10)
(0.9993932,-0.1459905) (6.569571,-2.975649) 7.000001
TSCGFO - CASE 3:  7.1999989E-02 (1.065519,-7.4389872E-10)
(0.9993932,-0.1459905) (6.569571,-2.975651) 7.000001
VSCGFO - CASE  2 :  7.1999989E-02 (1.065519,-7.4389872E-10)
(0.9993932,-0.1459905) (6.569571,-2.975649) 7.000001
VSCGFO - CASE  3 :  7.3999986E-02 (1.065519,-7.4389872E-10)
(0.9993932,-0.1459905) (6.569571,-2.975649) 7.000001
TSCGFO - CASE 3:  7.3999986E-02 (1.065519,-7.4389872E-10)
(0.9993932,-0.1459905) (6.569571,-2.975651) 7.000001
VSCGFO - CASE  2 :  7.3999986E-02 (1.065519,-7.4389872E-10)
(0.9993932,-0.1459905) (6.569571,-2.975649) 7.000001
VSCGFO - CASE  3 :  7.5999983E-02 (1.065519,-7.4389872E-10)
(0.9993932,-0.1459905) (6.569571,-2.975649) 7.000001
TSCGFO - CASE 3:  7.5999983E-02 (1.065519,-7.4389872E-10)
(0.9993932,-0.1459905) (6.569571,-2.975651) 7.000001
VSCGFO - CASE  2 :  7.5999983E-02 (1.065519,-7.4389872E-10)
(0.9993932,-0.1459905) (6.569571,-2.975649) 7.000001
VSCGFO - CASE  3 :  7.7999979E-02 (1.065519,-7.4389872E-10)
(0.9993932,-0.1459905) (6.569571,-2.975649) 7.000001
TSCGFO - CASE 3:  7.7999979E-02 (1.065519,-7.4389872E-10)
(0.9993932,-0.1459905) (6.569571,-2.975651) 7.000001
VSCGFO - CASE  2 :  7.7999979E-02 (1.065519,-7.4389872E-10)
(0.9993932,-0.1459905) (6.569571,-2.975649) 7.000001
VSCGFO - CASE  3 :  7.9999976E-02 (1.065519,-7.4389872E-10)
(0.9993932,-0.1459905) (6.569571,-2.975649) 7.000001
TSCGFO - CASE 3:  7.9999976E-02 (1.065519,-7.4389872E-10)
(0.9993932,-0.1459905) (6.569571,-2.975651) 7.000001
VSCGFO - CASE  2 :  7.9999976E-02 (1.065519,-7.4389872E-10)
(0.9993932,-0.1459905) (6.569571,-2.975649) 7.000001
VSCGFO - CASE  3 :  8.1999972E-02 (1.065519,-7.4389872E-10)
(0.9993932,-0.1459905) (6.569571,-2.975649) 7.000001
TSCGFO - CASE 3:  8.1999972E-02 (1.065519,-7.4389872E-10)
(0.9993932,-0.1459905) (6.569571,-2.975651) 7.000001
VSCGFO - CASE  2 :  8.1999972E-02 (1.065519,-7.4389872E-10)
(0.9993932,-0.1459905) (6.569571,-2.975649) 7.000001
VSCGFO - CASE  3 :  8.3999969E-02 (1.065519,-7.4389872E-10)
(0.9993932,-0.1459905) (6.569571,-2.975649) 7.000001
TSCGFO - CASE 3:  8.3999969E-02 (1.065519,-7.4389872E-10)
(0.9993932,-0.1459905) (6.569571,-2.975651) 7.000001
VSCGFO - CASE  2 :  8.3999969E-02 (1.065519,-7.4389872E-10)
(0.9993932,-0.1459905) (6.569571,-2.975649) 7.000001
VSCGFO - CASE  3 :  8.5999966E-02 (1.065519,-7.4389872E-10)
(0.9993932,-0.1459905) (6.569571,-2.975649) 7.000001
TSCGFO - CASE 3:  8.5999966E-02 (1.065519,-7.4389872E-10)
(0.9993932,-0.1459905) (6.569571,-2.975651) 7.000001
VSCGFO - CASE  2 :  8.5999966E-02 (1.065519,-7.4389872E-10)
(0.9993932,-0.1459905) (6.569571,-2.975649) 7.000001
VSCGFO - CASE  3 :  8.7999962E-02 (1.065519,-7.4389872E-10)
(0.9993932,-0.1459905) (6.569571,-2.975649) 7.000001
TSCGFO - CASE 3:  8.7999962E-02 (1.065519,-7.4389872E-10)
(0.9993932,-0.1459905) (6.569571,-2.975651) 7.000001
VSCGFO - CASE  2 :  8.7999962E-02 (1.065519,-7.4389872E-10)
(0.9993932,-0.1459905) (6.569571,-2.975649) 7.000001
VSCGFO - CASE  3 :  8.9999959E-02 (1.065519,-7.4389872E-10)
(0.9993932,-0.1459905) (6.569571,-2.975649) 7.000001
TSCGFO - CASE 3:  8.9999959E-02 (1.065519,-7.4389872E-10)
(0.9993932,-0.1459905) (6.569571,-2.975651) 7.000001
VSCGFO - CASE  2 :  8.9999959E-02 (1.065519,-7.4389872E-10)
(0.9993932,-0.1459905) (6.569571,-2.975649) 7.000001
VSCGFO - CASE  3 :  9.1999955E-02 (1.065519,-7.4389872E-10)
(0.9993932,-0.1459905) (6.569571,-2.975649) 7.000001
TSCGFO - CASE 3:  9.1999955E-02 (1.065519,-7.4389872E-10)
(0.9993932,-0.1459905) (6.569571,-2.975651) 7.000001
VSCGFO - CASE  2 :  9.1999955E-02 (1.065519,-7.4389872E-10)
(0.9993932,-0.1459905) (6.569571,-2.975649) 7.000001
VSCGFO - CASE  3 :  9.3999952E-02 (1.065519,-7.4389872E-10)
(0.9993932,-0.1459905) (6.569571,-2.975649) 7.000001
TSCGFO - CASE 3:  9.3999952E-02 (1.065519,-7.4389872E-10)
(0.9993932,-0.1459905) (6.569571,-2.975651) 7.000001
VSCGFO - CASE  2 :  9.3999952E-02 (1.065519,-7.4389872E-10)
(0.9993932,-0.1459905) (6.569571,-2.975649) 7.000001
VSCGFO - CASE  3 :  9.5999949E-02 (1.065519,-7.4389872E-10)
(0.9993932,-0.1459905) (6.569571,-2.975649) 7.000001
TSCGFO - CASE 3:  9.5999949E-02 (1.065519,-7.4389872E-10)
(0.9993932,-0.1459905) (6.569571,-2.975651) 7.000001
VSCGFO - CASE  2 :  9.5999949E-02 (1.065519,-7.4389872E-10)
(0.9993932,-0.1459905) (6.569571,-2.975649) 7.000001
VSCGFO - CASE  3 :  9.7999945E-02 (1.065519,-7.4389872E-10)
(0.9993932,-0.1459905) (6.569571,-2.975649) 7.000001
TSCGFO - CASE 3:  9.7999945E-02 (1.065519,-7.4389872E-10)
(0.9993932,-0.1459905) (6.569571,-2.975651) 7.000001
VSCGFO - CASE  2 :  9.7999945E-02 (1.065519,-7.4389872E-10)
(0.9993932,-0.1459905) (6.569571,-2.975649) 7.000001
VSCGFO - CASE  3 :  9.9999942E-02 (1.065519,-7.4389872E-10)
(0.9993932,-0.1459905) (6.569571,-2.975649) 7.000001
TSCGFO - CASE 3:  9.9999942E-02 (1.065519,-7.4389872E-10)
(0.9993932,-0.1459905) (6.569571,-2.975651) 7.000001
VSCGFO - CASE  2 :  9.9999942E-02 (1.065519,-7.4389872E-10)
(0.9993932,-0.1459905) (6.569571,-2.975649) 7.000001
VSCGFO - CASE  3 :  0.1019999 (1.065519,-7.4389872E-10) (0.9993932,-0.1459905)
(6.569571,-2.975649) 7.000001
TSCGFO - CASE 3:  0.1019999 (1.065519,-7.4389872E-10) (0.9993932,-0.1459905)
(6.569571,-2.975651) 7.000001
VSCGFO - CASE  2 :  0.1019999 (1.065519,-7.4389872E-10) (0.9993932,-0.1459905)
(6.569571,-2.975649) 7.000001
VSCGFO - CASE  3 :  0.1039999 (1.065519,-7.4389872E-10) (0.9993932,-0.1459905)
(6.569571,-2.975649) 7.000001
TSCGFO - CASE 3:  0.1039999 (1.065519,-7.4389872E-10) (0.9993932,-0.1459905)
(6.569571,-2.975651) 7.000001
VSCGFO - CASE  2 :  0.1039999 (1.065519,-7.4389872E-10) (0.9993932,-0.1459905)
(6.569571,-2.975649) 7.000001
VSCGFO - CASE  3 :  0.1059999 (1.065519,-7.4389872E-10) (0.9993932,-0.1459905)
(6.569571,-2.975649) 7.000001
TSCGFO - CASE 3:  0.1059999 (1.065519,-7.4389872E-10) (0.9993932,-0.1459905)
(6.569571,-2.975651) 7.000001
VSCGFO - CASE  2 :  0.1059999 (1.065519,-7.4389872E-10) (0.9993932,-0.1459905)
(6.569571,-2.975649) 7.000001
VSCGFO - CASE  3 :  0.1079999 (1.065519,-7.4389872E-10) (0.9993932,-0.1459905)
(6.569571,-2.975649) 7.000001
TSCGFO - CASE 3:  0.1079999 (1.065519,-7.4389872E-10) (0.9993932,-0.1459905)
(6.569571,-2.975651) 7.000001
VSCGFO - CASE  2 :  0.1079999 (1.065519,-7.4389872E-10) (0.9993932,-0.1459905)
(6.569571,-2.975649) 7.000001
VSCGFO - CASE  3 :  0.1099999 (1.065519,-7.4389872E-10) (0.9993932,-0.1459905)
(6.569571,-2.975649) 7.000001
TSCGFO - CASE 3:  0.1099999 (1.065519,-7.4389872E-10) (0.9993932,-0.1459905)
(6.569571,-2.975651) 7.000001
VSCGFO - CASE  2 :  0.1099999 (1.065519,-7.4389872E-10) (0.9993932,-0.1459905)
(6.569571,-2.975649) 7.000001
VSCGFO - CASE  3 :  0.1119999 (1.065519,-7.4389872E-10) (0.9993932,-0.1459905)
(6.569571,-2.975649) 7.000001
TSCGFO - CASE 3:  0.1119999 (1.065519,-7.4389872E-10) (0.9993932,-0.1459905)
(6.569571,-2.975651) 7.000001
VSCGFO - CASE  2 :  0.1119999 (1.065519,-7.4389872E-10) (0.9993932,-0.1459905)
(6.569571,-2.975649) 7.000001
VSCGFO - CASE  3 :  0.1139999 (1.065519,-7.4389872E-10) (0.9993932,-0.1459905)
(6.569571,-2.975649) 7.000001
TSCGFO - CASE 3:  0.1139999 (1.065519,-7.4389872E-10) (0.9993932,-0.1459905)
(6.569571,-2.975651) 7.000001
VSCGFO - CASE  2 :  0.1139999 (1.065519,-7.4389872E-10) (0.9993932,-0.1459905)
(6.569571,-2.975649) 7.000001
VSCGFO - CASE  3 :  0.1159999 (1.065519,-7.4389872E-10) (0.9993932,-0.1459905)
(6.569571,-2.975649) 7.000001
TSCGFO - CASE 3:  0.1159999 (1.065519,-7.4389872E-10) (0.9993932,-0.1459905)
(6.569571,-2.975651) 7.000001
VSCGFO - CASE  2 :  0.1159999 (1.065519,-7.4389872E-10) (0.9993932,-0.1459905)
(6.569571,-2.975649) 7.000001
VSCGFO - CASE  3 :  0.1179999 (1.065519,-7.4389872E-10) (0.9993932,-0.1459905)
(6.569571,-2.975649) 7.000001
TSCGFO - CASE 3:  0.1179999 (1.065519,-7.4389872E-10) (0.9993932,-0.1459905)
(6.569571,-2.975651) 7.000001
VSCGFO - CASE  2 :  0.1179999 (1.065519,-7.4389872E-10) (0.9993932,-0.1459905)
(6.569571,-2.975649) 7.000001
VSCGFO - CASE  3 :  0.1199999 (1.065519,-7.4389872E-10) (0.9993932,-0.1459905)
(6.569571,-2.975649) 7.000001
TSCGFO - CASE 3:  0.1199999 (1.065519,-7.4389872E-10) (0.9993932,-0.1459905)
(6.569571,-2.975651) 7.000001
VSCGFO - CASE  2 :  0.1199999 (1.065519,-7.4389872E-10) (0.9993932,-0.1459905)
(6.569571,-2.975649) 7.000001
VSCGFO - CASE  3 :  0.1219999 (1.065519,-7.4389872E-10) (0.9993932,-0.1459905)
(6.569571,-2.975649) 7.000001
TSCGFO - CASE 3:  0.1219999 (1.065519,-7.4389872E-10) (0.9993932,-0.1459905)
(6.569571,-2.975651) 7.000001
VSCGFO - CASE  2 :  0.1219999 (1.065519,-7.4389872E-10) (0.9993932,-0.1459905)
(6.569571,-2.975649) 7.000001
VSCGFO - CASE  3 :  0.1239999 (1.065519,-7.4389872E-10) (0.9993932,-0.1459905)
(6.569571,-2.975649) 7.000001
TSCGFO - CASE 3:  0.1239999 (1.065519,-7.4389872E-10) (0.9993932,-0.1459905)
(6.569571,-2.975651) 7.000001
VSCGFO - CASE  2 :  0.1239999 (1.065519,-7.4389872E-10) (0.9993932,-0.1459905)
(6.569571,-2.975649) 7.000001
VSCGFO - CASE  3 :  0.1259999 (1.065519,-7.4389872E-10) (0.9993932,-0.1459905)
(6.569571,-2.975649) 7.000001
TSCGFO - CASE 3:  0.1259999 (1.065519,-7.4389872E-10) (0.9993932,-0.1459905)
(6.569571,-2.975651) 7.000001
VSCGFO - CASE  2 :  0.1259999 (1.065519,-7.4389872E-10) (0.9993932,-0.1459905)
(6.569571,-2.975649) 7.000001
VSCGFO - CASE  3 :  0.1279999 (1.065519,-7.4389872E-10) (0.9993932,-0.1459905)
(6.569571,-2.975649) 7.000001
TSCGFO - CASE 3:  0.1279999 (1.065519,-7.4389872E-10) (0.9993932,-0.1459905)
(6.569571,-2.975651) 7.000001
VSCGFO - CASE  2 :  0.1279999 (1.065519,-7.4389872E-10) (0.9993932,-0.1459905)
(6.569571,-2.975649) 7.000001
VSCGFO - CASE  3 :  0.1299999 (1.065519,-7.4389872E-10) (0.9993932,-0.1459905)
(6.569571,-2.975649) 7.000001
TSCGFO - CASE 3:  0.1299999 (1.065519,-7.4389872E-10) (0.9993932,-0.1459905)
(6.569571,-2.975651) 7.000001
VSCGFO - CASE  2 :  0.1299999 (1.065519,-7.4389872E-10) (0.9993932,-0.1459905)
(6.569571,-2.975649) 7.000001
VSCGFO - CASE  3 :  0.1319999 (1.065519,-7.4389872E-10) (0.9993932,-0.1459905)
(6.569571,-2.975649) 7.000001
TSCGFO - CASE 3:  0.1319999 (1.065519,-7.4389872E-10) (0.9993932,-0.1459905)
(6.569571,-2.975651) 7.000001
VSCGFO - CASE  2 :  0.1319999 (1.065519,-7.4389872E-10) (0.9993932,-0.1459905)
(6.569571,-2.975649) 7.000001
VSCGFO - CASE  3 :  0.1339999 (1.065519,-7.4389872E-10) (0.9993932,-0.1459905)
(6.569571,-2.975649) 7.000001
TSCGFO - CASE 3:  0.1339999 (1.065519,-7.4389872E-10) (0.9993932,-0.1459905)
(6.569571,-2.975651) 7.000001
VSCGFO - CASE  2 :  0.1339999 (1.065519,-7.4389872E-10) (0.9993932,-0.1459905)
(6.569571,-2.975649) 7.000001
VSCGFO - CASE  3 :  0.1359999 (1.065519,-7.4389872E-10) (0.9993932,-0.1459905)
(6.569571,-2.975649) 7.000001
TSCGFO - CASE 3:  0.1359999 (1.065519,-7.4389872E-10) (0.9993932,-0.1459905)
(6.569571,-2.975651) 7.000001
VSCGFO - CASE  2 :  0.1359999 (1.065519,-7.4389872E-10) (0.9993932,-0.1459905)
(6.569571,-2.975649) 7.000001
VSCGFO - CASE  3 :  0.1379999 (1.065519,-7.4389872E-10) (0.9993932,-0.1459905)
(6.569571,-2.975649) 7.000001
TSCGFO - CASE 3:  0.1379999 (1.065519,-7.4389872E-10) (0.9993932,-0.1459905)
(6.569571,-2.975651) 7.000001
VSCGFO - CASE  2 :  0.1379999 (1.065519,-7.4389872E-10) (0.9993932,-0.1459905)
(6.569571,-2.975649) 7.000001
VSCGFO - CASE  3 :  0.1399999 (1.065519,-7.4389872E-10) (0.9993932,-0.1459905)
(6.569571,-2.975649) 7.000001
TSCGFO - CASE 3:  0.1399999 (1.065519,-7.4389872E-10) (0.9993932,-0.1459905)
(6.569571,-2.975651) 7.000001
VSCGFO - CASE  2 :  0.1399999 (1.065519,-7.4389872E-10) (0.9993932,-0.1459905)
(6.569571,-2.975649) 7.000001
VSCGFO - CASE  3 :  0.1419999 (1.065519,-7.4389872E-10) (0.9993932,-0.1459905)
(6.569571,-2.975649) 7.000001
TSCGFO - CASE 3:  0.1419999 (1.065519,-7.4389872E-10) (0.9993932,-0.1459905)
(6.569571,-2.975651) 7.000001
VSCGFO - CASE  2 :  0.1419999 (1.065519,-7.4389872E-10) (0.9993932,-0.1459905)
(6.569571,-2.975649) 7.000001
VSCGFO - CASE  3 :  0.1439999 (1.065519,-7.4389872E-10) (0.9993932,-0.1459905)
(6.569571,-2.975649) 7.000001
TSCGFO - CASE 3:  0.1439999 (1.065519,-7.4389872E-10) (0.9993932,-0.1459905)
(6.569571,-2.975651) 7.000001
VSCGFO - CASE  2 :  0.1439999 (1.065519,-7.4389872E-10) (0.9993932,-0.1459905)
(6.569571,-2.975649) 7.000001
VSCGFO - CASE  3 :  0.1459999 (1.065519,-7.4389872E-10) (0.9993932,-0.1459905)
(6.569571,-2.975649) 7.000001
TSCGFO - CASE 3:  0.1459999 (1.065519,-7.4389872E-10) (0.9993932,-0.1459905)
(6.569571,-2.975651) 7.000001
VSCGFO - CASE  2 :  0.1459999 (1.065519,-7.4389872E-10) (0.9993932,-0.1459905)
(6.569571,-2.975649) 7.000001
VSCGFO - CASE  3 :  0.1479999 (1.065519,-7.4389872E-10) (0.9993932,-0.1459905)
(6.569571,-2.975649) 7.000001
TSCGFO - CASE 3:  0.1479999 (1.065519,-7.4389872E-10) (0.9993932,-0.1459905)
(6.569571,-2.975651) 7.000001
VSCGFO - CASE  2 :  0.1479999 (1.065519,-7.4389872E-10) (0.9993932,-0.1459905)
(6.569571,-2.975649) 7.000001
VSCGFO - CASE  3 :  0.1499999 (1.065519,-7.4389872E-10) (0.9993932,-0.1459905)
(6.569571,-2.975649) 7.000001
TSCGFO - CASE 3:  0.1499999 (1.065519,-7.4389872E-10) (0.9993932,-0.1459905)
(6.569571,-2.975651) 7.000001
VSCGFO - CASE  2 :  0.1499999 (1.065519,-7.4389872E-10) (0.9993932,-0.1459905)
(6.569571,-2.975649) 7.000001
VSCGFO - CASE  3 :  0.1520000 (1.065519,-7.4389872E-10) (0.9993932,-0.1459905)
(6.569571,-2.975649) 7.000001
TSCGFO - CASE 3:  0.1520000 (1.065519,-7.4389872E-10) (0.9993932,-0.1459905)
(6.569571,-2.975651) 7.000001
VSCGFO - CASE  2 :  0.1520000 (1.065519,-7.4389872E-10) (0.9993932,-0.1459905)
(6.569571,-2.975649) 7.000001
VSCGFO - CASE  3 :  0.1540000 (1.065519,-7.4389872E-10) (0.9993932,-0.1459905)
(6.569571,-2.975649) 7.000001
TSCGFO - CASE 3:  0.1540000 (1.065519,-7.4389872E-10) (0.9993932,-0.1459905)
(6.569571,-2.975651) 7.000001
VSCGFO - CASE  2 :  0.1540000 (1.065519,-7.4389872E-10) (0.9993932,-0.1459905)
(6.569571,-2.975649) 7.000001
VSCGFO - CASE  3 :  0.1560000 (1.065519,-7.4389872E-10) (0.9993932,-0.1459905)
(6.569571,-2.975649) 7.000001
TSCGFO - CASE 3:  0.1560000 (1.065519,-7.4389872E-10) (0.9993932,-0.1459905)
(6.569571,-2.975651) 7.000001
VSCGFO - CASE  2 :  0.1560000 (1.065519,-7.4389872E-10) (0.9993932,-0.1459905)
(6.569571,-2.975649) 7.000001
VSCGFO - CASE  3 :  0.1580000 (1.065519,-7.4389872E-10) (0.9993932,-0.1459905)
(6.569571,-2.975649) 7.000001
TSCGFO - CASE 3:  0.1580000 (1.065519,-7.4389872E-10) (0.9993932,-0.1459905)
(6.569571,-2.975651) 7.000001
VSCGFO - CASE  2 :  0.1580000 (1.065519,-7.4389872E-10) (0.9993932,-0.1459905)
(6.569571,-2.975649) 7.000001
VSCGFO - CASE  3 :  0.1600000 (1.065519,-7.4389872E-10) (0.9993932,-0.1459905)
(6.569571,-2.975649) 7.000001
TSCGFO - CASE 3:  0.1600000 (1.065519,-7.4389872E-10) (0.9993932,-0.1459905)
(6.569571,-2.975651) 7.000001
VSCGFO - CASE  2 :  0.1600000 (1.065519,-7.4389872E-10) (0.9993932,-0.1459905)
(6.569571,-2.975649) 7.000001
VSCGFO - CASE  3 :  0.1620000 (1.065519,-7.4389872E-10) (0.9993932,-0.1459905)
(6.569571,-2.975649) 7.000001
TSCGFO - CASE 3:  0.1620000 (1.065519,-7.4389872E-10) (0.9993932,-0.1459905)
(6.569571,-2.975651) 7.000001
VSCGFO - CASE  2 :  0.1620000 (1.065519,-7.4389872E-10) (0.9993932,-0.1459905)
(6.569571,-2.975649) 7.000001
VSCGFO - CASE  3 :  0.1640000 (1.065519,-7.4389872E-10) (0.9993932,-0.1459905)
(6.569571,-2.975649) 7.000001
TSCGFO - CASE 3:  0.1640000 (1.065519,-7.4389872E-10) (0.9993932,-0.1459905)
(6.569571,-2.975651) 7.000001
VSCGFO - CASE  2 :  0.1640000 (1.065519,-7.4389872E-10) (0.9993932,-0.1459905)
(6.569571,-2.975649) 7.000001
VSCGFO - CASE  3 :  0.1660000 (1.065519,-7.4389872E-10) (0.9993932,-0.1459905)
(6.569571,-2.975649) 7.000001
TSCGFO - CASE 3:  0.1660000 (1.065519,-7.4389872E-10) (0.9993932,-0.1459905)
(6.569571,-2.975651) 7.000001
VSCGFO - CASE  2 :  0.1660000 (1.065519,-7.4389872E-10) (0.9993932,-0.1459905)
(6.569571,-2.975649) 7.000001
VSCGFO - CASE  3 :  0.1680000 (1.065519,-7.4389872E-10) (0.9993932,-0.1459905)
(6.569571,-2.975649) 7.000001
TSCGFO - CASE 3:  0.1680000 (1.065519,-7.4389872E-10) (0.9993932,-0.1459905)
(6.569571,-2.975651) 7.000001
VSCGFO - CASE  2 :  0.1680000 (1.065519,-7.4389872E-10) (0.9993932,-0.1459905)
(6.569571,-2.975649) 7.000001
VSCGFO - CASE  3 :  0.1700000 (1.065519,-7.4389872E-10) (0.9993932,-0.1459905)
(6.569571,-2.975649) 7.000001
TSCGFO - CASE 3:  0.1700000 (1.065519,-7.4389872E-10) (0.9993932,-0.1459905)
(6.569571,-2.975651) 7.000001
VSCGFO - CASE  2 :  0.1700000 (1.065519,-7.4389872E-10) (0.9993932,-0.1459905)
(6.569571,-2.975649) 7.000001
VSCGFO - CASE  3 :  0.1720000 (1.065519,-7.4389872E-10) (0.9993932,-0.1459905)
(6.569571,-2.975649) 7.000001
TSCGFO - CASE 3:  0.1720000 (1.065519,-7.4389872E-10) (0.9993932,-0.1459905)
(6.569571,-2.975651) 7.000001
VSCGFO - CASE  2 :  0.1720000 (1.065519,-7.4389872E-10) (0.9993932,-0.1459905)
(6.569571,-2.975649) 7.000001
VSCGFO - CASE  3 :  0.1740000 (1.065519,-7.4389872E-10) (0.9993932,-0.1459905)
(6.569571,-2.975649) 7.000001
TSCGFO - CASE 3:  0.1740000 (1.065519,-7.4389872E-10) (0.9993932,-0.1459905)
(6.569571,-2.975651) 7.000001
VSCGFO - CASE  2 :  0.1740000 (1.065519,-7.4389872E-10) (0.9993932,-0.1459905)
(6.569571,-2.975649) 7.000001
VSCGFO - CASE  3 :  0.1760000 (1.065519,-7.4389872E-10) (0.9993932,-0.1459905)
(6.569571,-2.975649) 7.000001
TSCGFO - CASE 3:  0.1760000 (1.065519,-7.4389872E-10) (0.9993932,-0.1459905)
(6.569571,-2.975651) 7.000001
VSCGFO - CASE  2 :  0.1760000 (1.065519,-7.4389872E-10) (0.9993932,-0.1459905)
(6.569571,-2.975649) 7.000001
VSCGFO - CASE  3 :  0.1780000 (1.065519,-7.4389872E-10) (0.9993932,-0.1459905)
(6.569571,-2.975649) 7.000001
TSCGFO - CASE 3:  0.1780000 (1.065519,-7.4389872E-10) (0.9993932,-0.1459905)
(6.569571,-2.975651) 7.000001
VSCGFO - CASE  2 :  0.1780000 (1.065519,-7.4389872E-10) (0.9993932,-0.1459905)
(6.569571,-2.975649) 7.000001
VSCGFO - CASE  3 :  0.1800000 (1.065519,-7.4389872E-10) (0.9993932,-0.1459905)
(6.569571,-2.975649) 7.000001
TSCGFO - CASE 3:  0.1800000 (1.065519,-7.4389872E-10) (0.9993932,-0.1459905)
(6.569571,-2.975651) 7.000001
VSCGFO - CASE  2 :  0.1800000 (1.065519,-7.4389872E-10) (0.9993932,-0.1459905)
(6.569571,-2.975649) 7.000001
VSCGFO - CASE  3 :  0.1820000 (1.065519,-7.4389872E-10) (0.9993932,-0.1459905)
(6.569571,-2.975649) 7.000001
TSCGFO - CASE 3:  0.1820000 (1.065519,-7.4389872E-10) (0.9993932,-0.1459905)
(6.569571,-2.975651) 7.000001
VSCGFO - CASE  2 :  0.1820000 (1.065519,-7.4389872E-10) (0.9993932,-0.1459905)
(6.569571,-2.975649) 7.000001
VSCGFO - CASE  3 :  0.1840000 (1.065519,-7.4389872E-10) (0.9993932,-0.1459905)
(6.569571,-2.975649) 7.000001
TSCGFO - CASE 3:  0.1840000 (1.065519,-7.4389872E-10) (0.9993932,-0.1459905)
(6.569571,-2.975651) 7.000001
VSCGFO - CASE  2 :  0.1840000 (1.065519,-7.4389872E-10) (0.9993932,-0.1459905)
(6.569571,-2.975649) 7.000001
VSCGFO - CASE  3 :  0.1860000 (1.065519,-7.4389872E-10) (0.9993932,-0.1459905)
(6.569571,-2.975649) 7.000001
TSCGFO - CASE 3:  0.1860000 (1.065519,-7.4389872E-10) (0.9993932,-0.1459905)
(6.569571,-2.975651) 7.000001
VSCGFO - CASE  2 :  0.1860000 (1.065519,-7.4389872E-10) (0.9993932,-0.1459905)
(6.569571,-2.975649) 7.000001
VSCGFO - CASE  3 :  0.1880000 (1.065519,-7.4389872E-10) (0.9993932,-0.1459905)
(6.569571,-2.975649) 7.000001
TSCGFO - CASE 3:  0.1880000 (1.065519,-7.4389872E-10) (0.9993932,-0.1459905)
(6.569571,-2.975651) 7.000001
VSCGFO - CASE  2 :  0.1880000 (1.065519,-7.4389872E-10) (0.9993932,-0.1459905)
(6.569571,-2.975649) 7.000001
VSCGFO - CASE  3 :  0.1900000 (1.065519,-7.4389872E-10) (0.9993932,-0.1459905)
(6.569571,-2.975649) 7.000001
TSCGFO - CASE 3:  0.1900000 (1.065519,-7.4389872E-10) (0.9993932,-0.1459905)
(6.569571,-2.975651) 7.000001
VSCGFO - CASE  2 :  0.1900000 (1.065519,-7.4389872E-10) (0.9993932,-0.1459905)
(6.569571,-2.975649) 7.000001
VSCGFO - CASE  3 :  0.1920000 (1.065519,-7.4389872E-10) (0.9993932,-0.1459905)
(6.569571,-2.975649) 7.000001
TSCGFO - CASE 3:  0.1920000 (1.065519,-7.4389872E-10) (0.9993932,-0.1459905)
(6.569571,-2.975651) 7.000001
VSCGFO - CASE  2 :  0.1920000 (1.065519,-7.4389872E-10) (0.9993932,-0.1459905)
(6.569571,-2.975649) 7.000001
VSCGFO - CASE  3 :  0.1940000 (1.065519,-7.4389872E-10) (0.9993932,-0.1459905)
(6.569571,-2.975649) 7.000001
TSCGFO - CASE 3:  0.1940000 (1.065519,-7.4389872E-10) (0.9993932,-0.1459905)
(6.569571,-2.975651) 7.000001
VSCGFO - CASE  2 :  0.1940000 (1.065519,-7.4389872E-10) (0.9993932,-0.1459905)
(6.569571,-2.975649) 7.000001
VSCGFO - CASE  3 :  0.1960000 (1.065519,-7.4389872E-10) (0.9993932,-0.1459905)
(6.569571,-2.975649) 7.000001
TSCGFO - CASE 3:  0.1960000 (1.065519,-7.4389872E-10) (0.9993932,-0.1459905)
(6.569571,-2.975651) 7.000001
VSCGFO - CASE  2 :  0.1960000 (1.065519,-7.4389872E-10) (0.9993932,-0.1459905)
(6.569571,-2.975649) 7.000001
VSCGFO - CASE  3 :  0.1980000 (1.065519,-7.4389872E-10) (0.9993932,-0.1459905)
(6.569571,-2.975649) 7.000001
TSCGFO - CASE 3:  0.1980000 (1.065519,-7.4389872E-10) (0.9993932,-0.1459905)
(6.569571,-2.975651) 7.000001
VSCGFO - CASE  2 :  0.1980000 (1.065519,-7.4389872E-10) (0.9993932,-0.1459905)
(6.569571,-2.975649) 7.000001
VSCGFO - CASE  3 :  0.2000000 (1.065519,-7.4389872E-10) (0.9993932,-0.1459905)
(6.569571,-2.975649) 7.000001
TSCGFO - CASE 3:  0.2000000 (1.065519,-7.4389872E-10) (0.9993932,-0.1459905)
(6.569571,-2.975651) 7.000001
VSCGFO - CASE  2 :  0.2000000 (1.065519,-7.4389872E-10) (0.9993932,-0.1459905)
(6.569571,-2.975649) 7.000001
VSCGFO - CASE  3 :  0.2020001 (1.065519,-7.4389872E-10) (0.9993932,-0.1459905)
(6.569571,-2.975649) 7.000001
TSCGFO - CASE 3:  0.2020001 (1.065519,-7.4389872E-10) (0.9993932,-0.1459905)
(6.569571,-2.975651) 7.000001
VSCGFO - CASE  2 :  0.2020001 (1.065519,-7.4389872E-10) (0.9993932,-0.1459905)
(6.569571,-2.975649) 7.000001
VSCGFO - CASE  3 :  0.2040001 (1.065519,-7.4389872E-10) (0.9993932,-0.1459905)
(6.569571,-2.975649) 7.000001
TSCGFO - CASE 3:  0.2040001 (1.065519,-7.4389872E-10) (0.9993932,-0.1459905)
(6.569571,-2.975651) 7.000001
VSCGFO - CASE  2 :  0.2040001 (1.065519,-7.4389872E-10) (0.9993932,-0.1459905)
(6.569571,-2.975649) 7.000001
VSCGFO - CASE  3 :  0.2060001 (1.065519,-7.4389872E-10) (0.9993932,-0.1459905)
(6.569571,-2.975649) 7.000001
TSCGFO - CASE 3:  0.2060001 (1.065519,-7.4389872E-10) (0.9993932,-0.1459905)
(6.569571,-2.975651) 7.000001
VSCGFO - CASE  2 :  0.2060001 (1.065519,-7.4389872E-10) (0.9993932,-0.1459905)
(6.569571,-2.975649) 7.000001
VSCGFO - CASE  3 :  0.2080001 (1.065519,-7.4389872E-10) (0.9993932,-0.1459905)
(6.569571,-2.975649) 7.000001
TSCGFO - CASE 3:  0.2080001 (1.065519,-7.4389872E-10) (0.9993932,-0.1459905)
(6.569571,-2.975651) 7.000001
VSCGFO - CASE  2 :  0.2080001 (1.065519,-7.4389872E-10) (0.9993932,-0.1459905)
(6.569571,-2.975649) 7.000001
VSCGFO - CASE  3 :  0.2100001 (1.065519,-7.4389872E-10) (0.9993932,-0.1459905)
(6.569571,-2.975649) 7.000001
TSCGFO - CASE 3:  0.2100001 (1.065519,-7.4389872E-10) (0.9993932,-0.1459905)
(6.569571,-2.975651) 7.000001
VSCGFO - CASE  2 :  0.2100001 (1.065519,-7.4389872E-10) (0.9993932,-0.1459905)
(6.569571,-2.975649) 7.000001
VSCGFO - CASE  3 :  0.2120001 (1.065519,-7.4389872E-10) (0.9993932,-0.1459905)
(6.569571,-2.975649) 7.000001
TSCGFO - CASE 3:  0.2120001 (1.065519,-7.4389872E-10) (0.9993932,-0.1459905)
(6.569571,-2.975651) 7.000001
VSCGFO - CASE  2 :  0.2120001 (1.065519,-7.4389872E-10) (0.9993932,-0.1459905)
(6.569571,-2.975649) 7.000001
VSCGFO - CASE  3 :  0.2140001 (1.065519,-7.4389872E-10) (0.9993932,-0.1459905)
(6.569571,-2.975649) 7.000001
TSCGFO - CASE 3:  0.2140001 (1.065519,-7.4389872E-10) (0.9993932,-0.1459905)
(6.569571,-2.975651) 7.000001
VSCGFO - CASE  2 :  0.2140001 (1.065519,-7.4389872E-10) (0.9993932,-0.1459905)
(6.569571,-2.975649) 7.000001
VSCGFO - CASE  3 :  0.2160001 (1.065519,-7.4389872E-10) (0.9993932,-0.1459905)
(6.569571,-2.975649) 7.000001
TSCGFO - CASE 3:  0.2160001 (1.065519,-7.4389872E-10) (0.9993932,-0.1459905)
(6.569571,-2.975651) 7.000001
VSCGFO - CASE  2 :  0.2160001 (1.065519,-7.4389872E-10) (0.9993932,-0.1459905)
(6.569571,-2.975649) 7.000001
VSCGFO - CASE  3 :  0.2180001 (1.065519,-7.4389872E-10) (0.9993932,-0.1459905)
(6.569571,-2.975649) 7.000001
TSCGFO - CASE 3:  0.2180001 (1.065519,-7.4389872E-10) (0.9993932,-0.1459905)
(6.569571,-2.975651) 7.000001
VSCGFO - CASE  2 :  0.2180001 (1.065519,-7.4389872E-10) (0.9993932,-0.1459905)
(6.569571,-2.975649) 7.000001
VSCGFO - CASE  3 :  0.2200001 (1.065519,-7.4389872E-10) (0.9993932,-0.1459905)
(6.569571,-2.975649) 7.000001
TSCGFO - CASE 3:  0.2200001 (1.065519,-7.4389872E-10) (0.9993932,-0.1459905)
(6.569571,-2.975651) 7.000001
VSCGFO - CASE  2 :  0.2200001 (1.065519,-7.4389872E-10) (0.9993932,-0.1459905)
(6.569571,-2.975649) 7.000001
VSCGFO - CASE  3 :  0.2220001 (1.065519,-7.4389872E-10) (0.9993932,-0.1459905)
(6.569571,-2.975649) 7.000001
TSCGFO - CASE 3:  0.2220001 (1.065519,-7.4389872E-10) (0.9993932,-0.1459905)
(6.569571,-2.975651) 7.000001
VSCGFO - CASE  2 :  0.2220001 (1.065519,-7.4389872E-10) (0.9993932,-0.1459905)
(6.569571,-2.975649) 7.000001
VSCGFO - CASE  3 :  0.2240001 (1.065519,-7.4389872E-10) (0.9993932,-0.1459905)
(6.569571,-2.975649) 7.000001
TSCGFO - CASE 3:  0.2240001 (1.065519,-7.4389872E-10) (0.9993932,-0.1459905)
(6.569571,-2.975651) 7.000001
VSCGFO - CASE  2 :  0.2240001 (1.065519,-7.4389872E-10) (0.9993932,-0.1459905)
(6.569571,-2.975649) 7.000001
VSCGFO - CASE  3 :  0.2260001 (1.065519,-7.4389872E-10) (0.9993932,-0.1459905)
(6.569571,-2.975649) 7.000001
TSCGFO - CASE 3:  0.2260001 (1.065519,-7.4389872E-10) (0.9993932,-0.1459905)
(6.569571,-2.975651) 7.000001
VSCGFO - CASE  2 :  0.2260001 (1.065519,-7.4389872E-10) (0.9993932,-0.1459905)
(6.569571,-2.975649) 7.000001
VSCGFO - CASE  3 :  0.2280001 (1.065519,-7.4389872E-10) (0.9993932,-0.1459905)
(6.569571,-2.975649) 7.000001
TSCGFO - CASE 3:  0.2280001 (1.065519,-7.4389872E-10) (0.9993932,-0.1459905)
(6.569571,-2.975651) 7.000001
VSCGFO - CASE  2 :  0.2280001 (1.065519,-7.4389872E-10) (0.9993932,-0.1459905)
(6.569571,-2.975649) 7.000001
VSCGFO - CASE  3 :  0.2300001 (1.065519,-7.4389872E-10) (0.9993932,-0.1459905)
(6.569571,-2.975649) 7.000001
TSCGFO - CASE 3:  0.2300001 (1.065519,-7.4389872E-10) (0.9993932,-0.1459905)
(6.569571,-2.975651) 7.000001
VSCGFO - CASE  2 :  0.2300001 (1.065519,-7.4389872E-10) (0.9993932,-0.1459905)
(6.569571,-2.975649) 7.000001
VSCGFO - CASE  3 :  0.2320001 (1.065519,-7.4389872E-10) (0.9993932,-0.1459905)
(6.569571,-2.975649) 7.000001
TSCGFO - CASE 3:  0.2320001 (1.065519,-7.4389872E-10) (0.9993932,-0.1459905)
(6.569571,-2.975651) 7.000001
VSCGFO - CASE  2 :  0.2320001 (1.065519,-7.4389872E-10) (0.9993932,-0.1459905)
(6.569571,-2.975649) 7.000001
VSCGFO - CASE  3 :  0.2340001 (1.065519,-7.4389872E-10) (0.9993932,-0.1459905)
(6.569571,-2.975649) 7.000001
TSCGFO - CASE 3:  0.2340001 (1.065519,-7.4389872E-10) (0.9993932,-0.1459905)
(6.569571,-2.975651) 7.000001
VSCGFO - CASE  2 :  0.2340001 (1.065519,-7.4389872E-10) (0.9993932,-0.1459905)
(6.569571,-2.975649) 7.000001
VSCGFO - CASE  3 :  0.2360001 (1.065519,-7.4389872E-10) (0.9993932,-0.1459905)
(6.569571,-2.975649) 7.000001
TSCGFO - CASE 3:  0.2360001 (1.065519,-7.4389872E-10) (0.9993932,-0.1459905)
(6.569571,-2.975651) 7.000001
VSCGFO - CASE  2 :  0.2360001 (1.065519,-7.4389872E-10) (0.9993932,-0.1459905)
(6.569571,-2.975649) 7.000001
VSCGFO - CASE  3 :  0.2380001 (1.065519,-7.4389872E-10) (0.9993932,-0.1459905)
(6.569571,-2.975649) 7.000001
TSCGFO - CASE 3:  0.2380001 (1.065519,-7.4389872E-10) (0.9993932,-0.1459905)
(6.569571,-2.975651) 7.000001
VSCGFO - CASE  2 :  0.2380001 (1.065519,-7.4389872E-10) (0.9993932,-0.1459905)
(6.569571,-2.975649) 7.000001
VSCGFO - CASE  3 :  0.2400001 (1.065519,-7.4389872E-10) (0.9993932,-0.1459905)
(6.569571,-2.975649) 7.000001
TSCGFO - CASE 3:  0.2400001 (1.065519,-7.4389872E-10) (0.9993932,-0.1459905)
(6.569571,-2.975651) 7.000001
VSCGFO - CASE  2 :  0.2400001 (1.065519,-7.4389872E-10) (0.9993932,-0.1459905)
(6.569571,-2.975649) 7.000001
VSCGFO - CASE  3 :  0.2420001 (1.065519,-7.4389872E-10) (0.9993932,-0.1459905)
(6.569571,-2.975649) 7.000001
TSCGFO - CASE 3:  0.2420001 (1.065519,-7.4389872E-10) (0.9993932,-0.1459905)
(6.569571,-2.975651) 7.000001
VSCGFO - CASE  2 :  0.2420001 (1.065519,-7.4389872E-10) (0.9993932,-0.1459905)
(6.569571,-2.975649) 7.000001
VSCGFO - CASE  3 :  0.2440001 (1.065519,-7.4389872E-10) (0.9993932,-0.1459905)
(6.569571,-2.975649) 7.000001
TSCGFO - CASE 3:  0.2440001 (1.065519,-7.4389872E-10) (0.9993932,-0.1459905)
(6.569571,-2.975651) 7.000001
VSCGFO - CASE  2 :  0.2440001 (1.065519,-7.4389872E-10) (0.9993932,-0.1459905)
(6.569571,-2.975649) 7.000001
VSCGFO - CASE  3 :  0.2460001 (1.065519,-7.4389872E-10) (0.9993932,-0.1459905)
(6.569571,-2.975649) 7.000001
TSCGFO - CASE 3:  0.2460001 (1.065519,-7.4389872E-10) (0.9993932,-0.1459905)
(6.569571,-2.975651) 7.000001
VSCGFO - CASE  2 :  0.2460001 (1.065519,-7.4389872E-10) (0.9993932,-0.1459905)
(6.569571,-2.975649) 7.000001
VSCGFO - CASE  3 :  0.2480001 (1.065519,-7.4389872E-10) (0.9993932,-0.1459905)
(6.569571,-2.975649) 7.000001
TSCGFO - CASE 3:  0.2480001 (1.065519,-7.4389872E-10) (0.9993932,-0.1459905)
(6.569571,-2.975651) 7.000001
VSCGFO - CASE  2 :  0.2480001 (1.065519,-7.4389872E-10) (0.9993932,-0.1459905)
(6.569571,-2.975649) 7.000001
VSCGFO - CASE  3 :  0.2500001 (1.065519,-7.4389872E-10) (0.9993932,-0.1459905)
(6.569571,-2.975649) 7.000001
TSCGFO - CASE 3:  0.2500001 (1.065519,-7.4389872E-10) (0.9993932,-0.1459905)
(6.569571,-2.975651) 7.000001
VSCGFO - CASE  2 :  0.2500001 (1.065519,-7.4389872E-10) (0.9993932,-0.1459905)
(6.569571,-2.975649) 7.000001
VSCGFO - CASE  3 :  0.2520002 (1.065519,-7.4389872E-10) (0.9993932,-0.1459905)
(6.569571,-2.975649) 7.000001
TSCGFO - CASE 3:  0.2520002 (1.065519,-7.4389872E-10) (0.9993932,-0.1459905)
(6.569571,-2.975651) 7.000001
VSCGFO - CASE  2 :  0.2520002 (1.065519,-7.4389872E-10) (0.9993932,-0.1459905)
(6.569571,-2.975649) 7.000001
VSCGFO - CASE  3 :  0.2540002 (1.065519,-7.4389872E-10) (0.9993932,-0.1459905)
(6.569571,-2.975649) 7.000001
TSCGFO - CASE 3:  0.2540002 (1.065519,-7.4389872E-10) (0.9993932,-0.1459905)
(6.569571,-2.975651) 7.000001
VSCGFO - CASE  2 :  0.2540002 (1.065519,-7.4389872E-10) (0.9993932,-0.1459905)
(6.569571,-2.975649) 7.000001
VSCGFO - CASE  3 :  0.2560002 (1.065519,-7.4389872E-10) (0.9993932,-0.1459905)
(6.569571,-2.975649) 7.000001
TSCGFO - CASE 3:  0.2560002 (1.065519,-7.4389872E-10) (0.9993932,-0.1459905)
(6.569571,-2.975651) 7.000001
VSCGFO - CASE  2 :  0.2560002 (1.065519,-7.4389872E-10) (0.9993932,-0.1459905)
(6.569571,-2.975649) 7.000001
VSCGFO - CASE  3 :  0.2580002 (1.065519,-7.4389872E-10) (0.9993932,-0.1459905)
(6.569571,-2.975649) 7.000001
TSCGFO - CASE 3:  0.2580002 (1.065519,-7.4389872E-10) (0.9993932,-0.1459905)
(6.569571,-2.975651) 7.000001
VSCGFO - CASE  2 :  0.2580002 (1.065519,-7.4389872E-10) (0.9993932,-0.1459905)
(6.569571,-2.975649) 7.000001
VSCGFO - CASE  3 :  0.2600002 (1.065519,-7.4389872E-10) (0.9993932,-0.1459905)
(6.569571,-2.975649) 7.000001
TSCGFO - CASE 3:  0.2600002 (1.065519,-7.4389872E-10) (0.9993932,-0.1459905)
(6.569571,-2.975651) 7.000001
VSCGFO - CASE  2 :  0.2600002 (1.065519,-7.4389872E-10) (0.9993932,-0.1459905)
(6.569571,-2.975649) 7.000001
VSCGFO - CASE  3 :  0.2620002 (1.065519,-7.4389872E-10) (0.9993932,-0.1459905)
(6.569571,-2.975649) 7.000001
TSCGFO - CASE 3:  0.2620002 (1.065519,-7.4389872E-10) (0.9993932,-0.1459905)
(6.569571,-2.975651) 7.000001
VSCGFO - CASE  2 :  0.2620002 (1.065519,-7.4389872E-10) (0.9993932,-0.1459905)
(6.569571,-2.975649) 7.000001
VSCGFO - CASE  3 :  0.2640002 (1.065519,-7.4389872E-10) (0.9993932,-0.1459905)
(6.569571,-2.975649) 7.000001
TSCGFO - CASE 3:  0.2640002 (1.065519,-7.4389872E-10) (0.9993932,-0.1459905)
(6.569571,-2.975651) 7.000001
VSCGFO - CASE  2 :  0.2640002 (1.065519,-7.4389872E-10) (0.9993932,-0.1459905)
(6.569571,-2.975649) 7.000001
VSCGFO - CASE  3 :  0.2660002 (1.065519,-7.4389872E-10) (0.9993932,-0.1459905)
(6.569571,-2.975649) 7.000001
TSCGFO - CASE 3:  0.2660002 (1.065519,-7.4389872E-10) (0.9993932,-0.1459905)
(6.569571,-2.975651) 7.000001
VSCGFO - CASE  2 :  0.2660002 (1.065519,-7.4389872E-10) (0.9993932,-0.1459905)
(6.569571,-2.975649) 7.000001
VSCGFO - CASE  3 :  0.2680002 (1.065519,-7.4389872E-10) (0.9993932,-0.1459905)
(6.569571,-2.975649) 7.000001
TSCGFO - CASE 3:  0.2680002 (1.065519,-7.4389872E-10) (0.9993932,-0.1459905)
(6.569571,-2.975651) 7.000001
VSCGFO - CASE  2 :  0.2680002 (1.065519,-7.4389872E-10) (0.9993932,-0.1459905)
(6.569571,-2.975649) 7.000001
VSCGFO - CASE  3 :  0.2700002 (1.065519,-7.4389872E-10) (0.9993932,-0.1459905)
(6.569571,-2.975649) 7.000001
TSCGFO - CASE 3:  0.2700002 (1.065519,-7.4389872E-10) (0.9993932,-0.1459905)
(6.569571,-2.975651) 7.000001
VSCGFO - CASE  2 :  0.2700002 (1.065519,-7.4389872E-10) (0.9993932,-0.1459905)
(6.569571,-2.975649) 7.000001
VSCGFO - CASE  3 :  0.2720002 (1.065519,-7.4389872E-10) (0.9993932,-0.1459905)
(6.569571,-2.975649) 7.000001
TSCGFO - CASE 3:  0.2720002 (1.065519,-7.4389872E-10) (0.9993932,-0.1459905)
(6.569571,-2.975651) 7.000001
VSCGFO - CASE  2 :  0.2720002 (1.065519,-7.4389872E-10) (0.9993932,-0.1459905)
(6.569571,-2.975649) 7.000001
VSCGFO - CASE  3 :  0.2740002 (1.065519,-7.4389872E-10) (0.9993932,-0.1459905)
(6.569571,-2.975649) 7.000001
TSCGFO - CASE 3:  0.2740002 (1.065519,-7.4389872E-10) (0.9993932,-0.1459905)
(6.569571,-2.975651) 7.000001
VSCGFO - CASE  2 :  0.2740002 (1.065519,-7.4389872E-10) (0.9993932,-0.1459905)
(6.569571,-2.975649) 7.000001
VSCGFO - CASE  3 :  0.2760002 (1.065519,-7.4389872E-10) (0.9993932,-0.1459905)
(6.569571,-2.975649) 7.000001
TSCGFO - CASE 3:  0.2760002 (1.065519,-7.4389872E-10) (0.9993932,-0.1459905)
(6.569571,-2.975651) 7.000001
VSCGFO - CASE  2 :  0.2760002 (1.065519,-7.4389872E-10) (0.9993932,-0.1459905)
(6.569571,-2.975649) 7.000001
VSCGFO - CASE  3 :  0.2780002 (1.065519,-7.4389872E-10) (0.9993932,-0.1459905)
(6.569571,-2.975649) 7.000001
TSCGFO - CASE 3:  0.2780002 (1.065519,-7.4389872E-10) (0.9993932,-0.1459905)
(6.569571,-2.975651) 7.000001
VSCGFO - CASE  2 :  0.2780002 (1.065519,-7.4389872E-10) (0.9993932,-0.1459905)
(6.569571,-2.975649) 7.000001
VSCGFO - CASE  3 :  0.2800002 (1.065519,-7.4389872E-10) (0.9993932,-0.1459905)
(6.569571,-2.975649) 7.000001
TSCGFO - CASE 3:  0.2800002 (1.065519,-7.4389872E-10) (0.9993932,-0.1459905)
(6.569571,-2.975651) 7.000001
VSCGFO - CASE  2 :  0.2800002 (1.065519,-7.4389872E-10) (0.9993932,-0.1459905)
(6.569571,-2.975649) 7.000001
VSCGFO - CASE  3 :  0.2820002 (1.065519,-7.4389872E-10) (0.9993932,-0.1459905)
(6.569571,-2.975649) 7.000001
TSCGFO - CASE 3:  0.2820002 (1.065519,-7.4389872E-10) (0.9993932,-0.1459905)
(6.569571,-2.975651) 7.000001
VSCGFO - CASE  2 :  0.2820002 (1.065519,-7.4389872E-10) (0.9993932,-0.1459905)
(6.569571,-2.975649) 7.000001
VSCGFO - CASE  3 :  0.2840002 (1.065519,-7.4389872E-10) (0.9993932,-0.1459905)
(6.569571,-2.975649) 7.000001
TSCGFO - CASE 3:  0.2840002 (1.065519,-7.4389872E-10) (0.9993932,-0.1459905)
(6.569571,-2.975651) 7.000001
VSCGFO - CASE  2 :  0.2840002 (1.065519,-7.4389872E-10) (0.9993932,-0.1459905)
(6.569571,-2.975649) 7.000001
VSCGFO - CASE  3 :  0.2860002 (1.065519,-7.4389872E-10) (0.9993932,-0.1459905)
(6.569571,-2.975649) 7.000001
TSCGFO - CASE 3:  0.2860002 (1.065519,-7.4389872E-10) (0.9993932,-0.1459905)
(6.569571,-2.975651) 7.000001
VSCGFO - CASE  2 :  0.2860002 (1.065519,-7.4389872E-10) (0.9993932,-0.1459905)
(6.569571,-2.975649) 7.000001
VSCGFO - CASE  3 :  0.2880002 (1.065519,-7.4389872E-10) (0.9993932,-0.1459905)
(6.569571,-2.975649) 7.000001
TSCGFO - CASE 3:  0.2880002 (1.065519,-7.4389872E-10) (0.9993932,-0.1459905)
(6.569571,-2.975651) 7.000001
VSCGFO - CASE  2 :  0.2880002 (1.065519,-7.4389872E-10) (0.9993932,-0.1459905)
(6.569571,-2.975649) 7.000001
VSCGFO - CASE  3 :  0.2900002 (1.065519,-7.4389872E-10) (0.9993932,-0.1459905)
(6.569571,-2.975649) 7.000001
TSCGFO - CASE 3:  0.2900002 (1.065519,-7.4389872E-10) (0.9993932,-0.1459905)
(6.569571,-2.975651) 7.000001
VSCGFO - CASE  2 :  0.2900002 (1.065519,-7.4389872E-10) (0.9993932,-0.1459905)
(6.569571,-2.975649) 7.000001
VSCGFO - CASE  3 :  0.2920002 (1.065519,-7.4389872E-10) (0.9993932,-0.1459905)
(6.569571,-2.975649) 7.000001
TSCGFO - CASE 3:  0.2920002 (1.065519,-7.4389872E-10) (0.9993932,-0.1459905)
(6.569571,-2.975651) 7.000001
VSCGFO - CASE  2 :  0.2920002 (1.065519,-7.4389872E-10) (0.9993932,-0.1459905)
(6.569571,-2.975649) 7.000001
VSCGFO - CASE  3 :  0.2940002 (1.065519,-7.4389872E-10) (0.9993932,-0.1459905)
(6.569571,-2.975649) 7.000001
TSCGFO - CASE 3:  0.2940002 (1.065519,-7.4389872E-10) (0.9993932,-0.1459905)
(6.569571,-2.975651) 7.000001
VSCGFO - CASE  2 :  0.2940002 (1.065519,-7.4389872E-10) (0.9993932,-0.1459905)
(6.569571,-2.975649) 7.000001
VSCGFO - CASE  3 :  0.2960002 (1.065519,-7.4389872E-10) (0.9993932,-0.1459905)
(6.569571,-2.975649) 7.000001
TSCGFO - CASE 3:  0.2960002 (1.065519,-7.4389872E-10) (0.9993932,-0.1459905)
(6.569571,-2.975651) 7.000001
VSCGFO - CASE  2 :  0.2960002 (1.065519,-7.4389872E-10) (0.9993932,-0.1459905)
(6.569571,-2.975649) 7.000001
VSCGFO - CASE  3 :  0.2980002 (1.065519,-7.4389872E-10) (0.9993932,-0.1459905)
(6.569571,-2.975649) 7.000001
TSCGFO - CASE 3:  0.2980002 (1.065519,-7.4389872E-10) (0.9993932,-0.1459905)
(6.569571,-2.975651) 7.000001
VSCGFO - CASE  2 :  0.2980002 (1.065519,-7.4389872E-10) (0.9993932,-0.1459905)
(6.569571,-2.975649) 7.000001
VSCGFO - CASE  3 :  0.3000003 (1.065519,-7.4389872E-10) (0.9993932,-0.1459905)
(6.569571,-2.975649) 7.000001
TSCGFO - CASE 3:  0.3000003 (1.065519,-7.4389872E-10) (0.9993932,-0.1459905)
(6.569571,-2.975651) 7.000001
VSCGFO - CASE  2 :  0.3000003 (1.065519,-7.4389872E-10) (0.9993932,-0.1459905)
(6.569571,-2.975649) 7.000001
VSCGFO - CASE  3 :  0.3020003 (1.065519,-7.4389872E-10) (0.9993932,-0.1459905)
(6.569571,-2.975649) 7.000001
TSCGFO - CASE 3:  0.3020003 (1.065519,-7.4389872E-10) (0.9993932,-0.1459905)
(6.569571,-2.975651) 7.000001
VSCGFO - CASE  2 :  0.3020003 (1.065519,-7.4389872E-10) (0.9993932,-0.1459905)
(6.569571,-2.975649) 7.000001
VSCGFO - CASE  3 :  0.3040003 (1.065519,-7.4389872E-10) (0.9993932,-0.1459905)
(6.569571,-2.975649) 7.000001
TSCGFO - CASE 3:  0.3040003 (1.065519,-7.4389872E-10) (0.9993932,-0.1459905)
(6.569571,-2.975651) 7.000001
VSCGFO - CASE  2 :  0.3040003 (1.065519,-7.4389872E-10) (0.9993932,-0.1459905)
(6.569571,-2.975649) 7.000001
VSCGFO - CASE  3 :  0.3060003 (1.065519,-7.4389872E-10) (0.9993932,-0.1459905)
(6.569571,-2.975649) 7.000001
TSCGFO - CASE 3:  0.3060003 (1.065519,-7.4389872E-10) (0.9993932,-0.1459905)
(6.569571,-2.975651) 7.000001
VSCGFO - CASE  2 :  0.3060003 (1.065519,-7.4389872E-10) (0.9993932,-0.1459905)
(6.569571,-2.975649) 7.000001
VSCGFO - CASE  3 :  0.3080003 (1.065519,-7.4389872E-10) (0.9993932,-0.1459905)
(6.569571,-2.975649) 7.000001
TSCGFO - CASE 3:  0.3080003 (1.065519,-7.4389872E-10) (0.9993932,-0.1459905)
(6.569571,-2.975651) 7.000001
VSCGFO - CASE  2 :  0.3080003 (1.065519,-7.4389872E-10) (0.9993932,-0.1459905)
(6.569571,-2.975649) 7.000001
VSCGFO - CASE  3 :  0.3100003 (1.065519,-7.4389872E-10) (0.9993932,-0.1459905)
(6.569571,-2.975649) 7.000001
TSCGFO - CASE 3:  0.3100003 (1.065519,-7.4389872E-10) (0.9993932,-0.1459905)
(6.569571,-2.975651) 7.000001
VSCGFO - CASE  2 :  0.3100003 (1.065519,-7.4389872E-10) (0.9993932,-0.1459905)
(6.569571,-2.975649) 7.000001
VSCGFO - CASE  3 :  0.3120003 (1.065519,-7.4389872E-10) (0.9993932,-0.1459905)
(6.569571,-2.975649) 7.000001
TSCGFO - CASE 3:  0.3120003 (1.065519,-7.4389872E-10) (0.9993932,-0.1459905)
(6.569571,-2.975651) 7.000001
VSCGFO - CASE  2 :  0.3120003 (1.065519,-7.4389872E-10) (0.9993932,-0.1459905)
(6.569571,-2.975649) 7.000001
VSCGFO - CASE  3 :  0.3140003 (1.065519,-7.4389872E-10) (0.9993932,-0.1459905)
(6.569571,-2.975649) 7.000001
TSCGFO - CASE 3:  0.3140003 (1.065519,-7.4389872E-10) (0.9993932,-0.1459905)
(6.569571,-2.975651) 7.000001
VSCGFO - CASE  2 :  0.3140003 (1.065519,-7.4389872E-10) (0.9993932,-0.1459905)
(6.569571,-2.975649) 7.000001
VSCGFO - CASE  3 :  0.3160003 (1.065519,-7.4389872E-10) (0.9993932,-0.1459905)
(6.569571,-2.975649) 7.000001
TSCGFO - CASE 3:  0.3160003 (1.065519,-7.4389872E-10) (0.9993932,-0.1459905)
(6.569571,-2.975651) 7.000001
VSCGFO - CASE  2 :  0.3160003 (1.065519,-7.4389872E-10) (0.9993932,-0.1459905)
(6.569571,-2.975649) 7.000001
VSCGFO - CASE  3 :  0.3180003 (1.065519,-7.4389872E-10) (0.9993932,-0.1459905)
(6.569571,-2.975649) 7.000001
TSCGFO - CASE 3:  0.3180003 (1.065519,-7.4389872E-10) (0.9993932,-0.1459905)
(6.569571,-2.975651) 7.000001
VSCGFO - CASE  2 :  0.3180003 (1.065519,-7.4389872E-10) (0.9993932,-0.1459905)
(6.569571,-2.975649) 7.000001
VSCGFO - CASE  3 :  0.3200003 (1.065519,-7.4389872E-10) (0.9993932,-0.1459905)
(6.569571,-2.975649) 7.000001
TSCGFO - CASE 3:  0.3200003 (1.065519,-7.4389872E-10) (0.9993932,-0.1459905)
(6.569571,-2.975651) 7.000001
VSCGFO - CASE  2 :  0.3200003 (1.065519,-7.4389872E-10) (0.9993932,-0.1459905)
(6.569571,-2.975649) 7.000001
VSCGFO - CASE  3 :  0.3220003 (1.065519,-7.4389872E-10) (0.9993932,-0.1459905)
(6.569571,-2.975649) 7.000001
TSCGFO - CASE 3:  0.3220003 (1.065519,-7.4389872E-10) (0.9993932,-0.1459905)
(6.569571,-2.975651) 7.000001
VSCGFO - CASE  2 :  0.3220003 (1.065519,-7.4389872E-10) (0.9993932,-0.1459905)
(6.569571,-2.975649) 7.000001
VSCGFO - CASE  3 :  0.3240003 (1.065519,-7.4389872E-10) (0.9993932,-0.1459905)
(6.569571,-2.975649) 7.000001
TSCGFO - CASE 3:  0.3240003 (1.065519,-7.4389872E-10) (0.9993932,-0.1459905)
...